<?xml version="1.0" encoding="utf-8"?>
<!DOCTYPE population SYSTEM "http://www.matsim.org/files/dtd/population_v6.dtd">

<population>



<!-- ====================================================================== -->

	<person id="drt_person_0">
		<plan selected="yes">
			<activity type="dummy" link="541" x="3146.0644" y="-3809.9089" end_time="07:00:17" >
			</activity>
			<leg mode="drt">
			</leg>
			<activity type="dummy" link="193" x="482.4765" y="-3552.378" >
			</activity>
		</plan>

	</person>

<!-- ====================================================================== -->

	<person id="drt_person_1">
		<plan selected="yes">
			<activity type="dummy" link="100" x="2587.1827" y="-3972.6167" end_time="07:02:58" >
			</activity>
			<leg mode="drt">
			</leg>
			<activity type="dummy" link="255" x="1822.2631" y="-3661.9329" >
			</activity>
		</plan>

	</person>

<!-- ====================================================================== -->

	<person id="drt_person_10">
		<plan selected="yes">
			<activity type="dummy" link="121" x="2450.7677" y="-2788.3715" end_time="07:05:05" >
			</activity>
			<leg mode="drt">
			</leg>
			<activity type="dummy" link="521" x="4613.1351" y="-3115.183" >
			</activity>
		</plan>

	</person>

<!-- ====================================================================== -->

	<person id="drt_person_100">
		<plan selected="yes">
			<activity type="dummy" link="451" x="3778.7953" y="-5650.8541" end_time="07:15:23" >
			</activity>
			<leg mode="drt">
			</leg>
			<activity type="dummy" link="261" x="4384.5801" y="-2946.7248" >
			</activity>
		</plan>

	</person>

<!-- ====================================================================== -->

	<person id="drt_person_101">
		<plan selected="yes">
			<activity type="dummy" link="325" x="4245.6001" y="-6052.7489" end_time="07:58:14" >
			</activity>
			<leg mode="drt">
			</leg>
			<activity type="dummy" link="151" x="3893.7418" y="-2584.9121" >
			</activity>
		</plan>

	</person>

<!-- ====================================================================== -->

	<person id="drt_person_11">
		<plan selected="yes">
			<activity type="dummy" link="139" x="2681.3028" y="-3558.6515" end_time="07:05:07" >
			</activity>
			<leg mode="drt">
			</leg>
			<activity type="dummy" link="525" x="4921.3124" y="-3241.2555" >
			</activity>
		</plan>

	</person>

<!-- ====================================================================== -->

	<person id="drt_person_12">
		<plan selected="yes">
			<activity type="dummy" link="575" x="2312.7228" y="-3359.1399" end_time="07:08:10" >
			</activity>
			<leg mode="drt">
			</leg>
			<activity type="dummy" link="261" x="4526.8744" y="-2534.5767" >
			</activity>
		</plan>

	</person>

<!-- ====================================================================== -->

	<person id="drt_person_13">
		<plan selected="yes">
			<activity type="dummy" link="225" x="2878.6962" y="-3263.1629" end_time="07:09:19" >
			</activity>
			<leg mode="drt">
			</leg>
			<activity type="dummy" link="151" x="3893.7418" y="-2584.9121" >
			</activity>
		</plan>

	</person>

<!-- ====================================================================== -->

	<person id="drt_person_14">
		<plan selected="yes">
			<activity type="dummy" link="101" x="3226.9121" y="-3345.9461" end_time="07:12:19" >
			</activity>
			<leg mode="drt">
			</leg>
			<activity type="dummy" link="151" x="3893.7418" y="-2584.9121" >
			</activity>
		</plan>

	</person>

<!-- ====================================================================== -->

	<person id="drt_person_15">
		<plan selected="yes">
			<activity type="dummy" link="129" x="2950.5903" y="-2910.665" end_time="07:17:11" >
			</activity>
			<leg mode="drt">
			</leg>
			<activity type="dummy" link="531" x="5099.9151" y="-2561.8646" >
			</activity>
		</plan>

	</person>

<!-- ====================================================================== -->

	<person id="drt_person_16">
		<plan selected="yes">
			<activity type="dummy" link="575" x="2312.7228" y="-3359.1399" end_time="07:33:33" >
			</activity>
			<leg mode="drt">
			</leg>
			<activity type="dummy" link="521" x="4638.1194" y="-3007.4327" >
			</activity>
		</plan>

	</person>

<!-- ====================================================================== -->

	<person id="drt_person_17">
		<plan selected="yes">
			<activity type="dummy" link="101" x="3226.9121" y="-3345.9461" end_time="07:02:46" >
			</activity>
			<leg mode="drt">
			</leg>
			<activity type="dummy" link="11" x="2126.3116" y="-4535.0972" >
			</activity>
		</plan>

	</person>

<!-- ====================================================================== -->

	<person id="drt_person_18">
		<plan selected="yes">
			<activity type="dummy" link="167" x="2252.022" y="-2543.4512" end_time="07:04:00" >
			</activity>
			<leg mode="drt">
			</leg>
			<activity type="dummy" link="315" x="5004.3302" y="-7044.19" >
			</activity>
		</plan>

	</person>

<!-- ====================================================================== -->

	<person id="drt_person_19">
		<plan selected="yes">
			<activity type="dummy" link="129" x="2950.5903" y="-2910.665" end_time="07:18:59" >
			</activity>
			<leg mode="drt">
			</leg>
			<activity type="dummy" link="315" x="6781.4632" y="-9847.5303" >
			</activity>
		</plan>

	</person>

<!-- ====================================================================== -->

	<person id="drt_person_2">
		<plan selected="yes">
			<activity type="dummy" link="101" x="3226.9121" y="-3345.9461" end_time="07:47:35" >
			</activity>
			<leg mode="drt">
			</leg>
			<activity type="dummy" link="211" x="1750.9159" y="-2836.2459" >
			</activity>
		</plan>

	</person>

<!-- ====================================================================== -->

	<person id="drt_person_20">
		<plan selected="yes">
			<activity type="dummy" link="455" x="1397.0049" y="-3159.6038" end_time="07:00:17" >
			</activity>
			<leg mode="drt">
			</leg>
			<activity type="dummy" link="100" x="2587.1827" y="-3972.6167" >
			</activity>
		</plan>

	</person>

<!-- ====================================================================== -->

	<person id="drt_person_21">
		<plan selected="yes">
			<activity type="dummy" link="251" x="186.9775" y="-3937.1252" end_time="07:09:03" >
			</activity>
			<leg mode="drt">
			</leg>
			<activity type="dummy" link="121" x="2562.3759" y="-2696.8893" >
			</activity>
		</plan>

	</person>

<!-- ====================================================================== -->

	<person id="drt_person_22">
		<plan selected="yes">
			<activity type="dummy" link="465" x="1932.6731" y="-3400.4864" end_time="07:30:23" >
			</activity>
			<leg mode="drt">
			</leg>
			<activity type="dummy" link="169" x="2236.6993" y="-2938.4023" >
			</activity>
		</plan>

	</person>

<!-- ====================================================================== -->

	<person id="drt_person_23">
		<plan selected="yes">
			<activity type="dummy" link="191" x="619.2843" y="-3731.0713" end_time="07:33:03" >
			</activity>
			<leg mode="drt">
			</leg>
			<activity type="dummy" link="100" x="2587.1827" y="-3972.6167" >
			</activity>
		</plan>

	</person>

<!-- ====================================================================== -->

	<person id="drt_person_24">
		<plan selected="yes">
			<activity type="dummy" link="1" x="1693.0797" y="-4371.0593" end_time="07:40:42" >
			</activity>
			<leg mode="drt">
			</leg>
			<activity type="dummy" link="227" x="2419.859" y="-3745.5265" >
			</activity>
		</plan>

	</person>

<!-- ====================================================================== -->

	<person id="drt_person_25">
		<plan selected="yes">
			<activity type="dummy" link="251" x="186.9775" y="-3937.1252" end_time="07:44:11" >
			</activity>
			<leg mode="drt">
			</leg>
			<activity type="dummy" link="231" x="2052.0274" y="-2886.637" >
			</activity>
		</plan>

	</person>

<!-- ====================================================================== -->

	<person id="drt_person_26">
		<plan selected="yes">
			<activity type="dummy" link="205" x="1314.5077" y="-3446.0856" end_time="07:49:11" >
			</activity>
			<leg mode="drt">
			</leg>
			<activity type="dummy" link="117" x="2377.5819" y="-3143.3224" >
			</activity>
		</plan>

	</person>

<!-- ====================================================================== -->

	<person id="drt_person_27">
		<plan selected="yes">
			<activity type="dummy" link="201" x="679.8215" y="-4139.695" end_time="07:57:04" >
			</activity>
			<leg mode="drt">
			</leg>
			<activity type="dummy" link="111" x="2536.7609" y="-2894.4909" >
			</activity>
		</plan>

	</person>

<!-- ====================================================================== -->

	<person id="drt_person_28">
		<plan selected="yes">
			<activity type="dummy" link="219" x="275.4307" y="-3791.1343" end_time="07:26:52" >
			</activity>
			<leg mode="drt">
			</leg>
			<activity type="dummy" link="195" x="1101.8713" y="-2916.9678" >
			</activity>
		</plan>

	</person>

<!-- ====================================================================== -->

	<person id="drt_person_29">
		<plan selected="yes">
			<activity type="dummy" link="1" x="1848.3062" y="-4230.8927" end_time="07:30:29" >
			</activity>
			<leg mode="drt">
			</leg>
			<activity type="dummy" link="339" x="1544.4978" y="-2061.5003" >
			</activity>
		</plan>

	</person>

<!-- ====================================================================== -->

	<person id="drt_person_3">
		<plan selected="yes">
			<activity type="dummy" link="139" x="2681.3028" y="-3558.6515" end_time="07:07:53" >
			</activity>
			<leg mode="drt">
			</leg>
			<activity type="dummy" link="339" x="1544.4978" y="-2061.5003" >
			</activity>
		</plan>

	</person>

<!-- ====================================================================== -->

	<person id="drt_person_30">
		<plan selected="yes">
			<activity type="dummy" link="219" x="275.4307" y="-3791.1343" end_time="07:02:37" >
			</activity>
			<leg mode="drt">
			</leg>
			<activity type="dummy" link="367" x="4357.3695" y="-1706.4735" >
			</activity>
		</plan>

	</person>

<!-- ====================================================================== -->

	<person id="drt_person_31">
		<plan selected="yes">
			<activity type="dummy" link="11" x="2126.3116" y="-4535.0972" end_time="07:40:05" >
			</activity>
			<leg mode="drt">
			</leg>
			<activity type="dummy" link="257" x="4517.6647" y="-2405.6406" >
			</activity>
		</plan>

	</person>

<!-- ====================================================================== -->

	<person id="drt_person_32">
		<plan selected="yes">
			<activity type="dummy" link="195" x="1101.8713" y="-2916.9678" end_time="07:58:40" >
			</activity>
			<leg mode="drt">
			</leg>
			<activity type="dummy" link="393" x="4645.7786" y="-1961.0661" >
			</activity>
		</plan>

	</person>

<!-- ====================================================================== -->

	<person id="drt_person_33">
		<plan selected="yes">
			<activity type="dummy" link="179" x="1312.7703" y="-3738.178" end_time="07:12:26" >
			</activity>
			<leg mode="drt">
			</leg>
			<activity type="dummy" link="151" x="3893.7418" y="-2584.9121" >
			</activity>
		</plan>

	</person>

<!-- ====================================================================== -->

	<person id="drt_person_34">
		<plan selected="yes">
			<activity type="dummy" link="215" x="2149.0481" y="-3307.914" end_time="07:14:29" >
			</activity>
			<leg mode="drt">
			</leg>
			<activity type="dummy" link="265" x="4701.2855" y="-2516.1463" >
			</activity>
		</plan>

	</person>

<!-- ====================================================================== -->

	<person id="drt_person_35">
		<plan selected="yes">
			<activity type="dummy" link="15" x="1823.7334" y="-3878.1925" end_time="07:16:27" >
			</activity>
			<leg mode="drt">
			</leg>
			<activity type="dummy" link="523" x="4730.3495" y="-3422.5444" >
			</activity>
		</plan>

	</person>

<!-- ====================================================================== -->

	<person id="drt_person_36">
		<plan selected="yes">
			<activity type="dummy" link="477" x="1305.3809" y="-3857.1716" end_time="07:30:51" >
			</activity>
			<leg mode="drt">
			</leg>
			<activity type="dummy" link="521" x="4613.1351" y="-3115.183" >
			</activity>
		</plan>

	</person>

<!-- ====================================================================== -->

	<person id="drt_person_37">
		<plan selected="yes">
			<activity type="dummy" link="100" x="2587.1827" y="-3972.6167" end_time="07:43:28" >
			</activity>
			<leg mode="drt">
			</leg>
			<activity type="dummy" link="403" x="5368.5721" y="-2591.6085" >
			</activity>
		</plan>

	</person>

<!-- ====================================================================== -->

	<person id="drt_person_38">
		<plan selected="yes">
			<activity type="dummy" link="100" x="2169.8585" y="-3943.5854" end_time="07:05:40" >
			</activity>
			<leg mode="drt">
			</leg>
			<activity type="dummy" link="31" x="4954.4016" y="-4463.2973" >
			</activity>
		</plan>

	</person>

<!-- ====================================================================== -->

	<person id="drt_person_39">
		<plan selected="yes">
			<activity type="dummy" link="469" x="1085.9139" y="-3894.4667" end_time="07:00:49" >
			</activity>
			<leg mode="drt">
			</leg>
			<activity type="dummy" link="315" x="6781.4632" y="-9847.5303" >
			</activity>
		</plan>

	</person>

<!-- ====================================================================== -->

	<person id="drt_person_4">
		<plan selected="yes">
			<activity type="dummy" link="121" x="2450.7677" y="-2788.3715" end_time="07:45:43" >
			</activity>
			<leg mode="drt">
			</leg>
			<activity type="dummy" link="195" x="1101.8713" y="-2916.9678" >
			</activity>
		</plan>

	</person>

<!-- ====================================================================== -->

	<person id="drt_person_40">
		<plan selected="yes">
			<activity type="dummy" link="461" x="1882.4682" y="-3780.6091" end_time="07:03:19" >
			</activity>
			<leg mode="drt">
			</leg>
			<activity type="dummy" link="315" x="5004.3302" y="-7044.19" >
			</activity>
		</plan>

	</person>

<!-- ====================================================================== -->

	<person id="drt_person_41">
		<plan selected="yes">
			<activity type="dummy" link="197" x="299.5735" y="-3886.1963" end_time="07:30:31" >
			</activity>
			<leg mode="drt">
			</leg>
			<activity type="dummy" link="451" x="3778.7953" y="-5650.8541" >
			</activity>
		</plan>

	</person>

<!-- ====================================================================== -->

	<person id="drt_person_42">
		<plan selected="yes">
			<activity type="dummy" link="193" x="482.4765" y="-3552.378" end_time="07:31:32" >
			</activity>
			<leg mode="drt">
			</leg>
			<activity type="dummy" link="539" x="2926.2134" y="-4002.7119" >
			</activity>
		</plan>

	</person>

<!-- ====================================================================== -->

	<person id="drt_person_43">
		<plan selected="yes">
			<activity type="dummy" link="203" x="1538.4881" y="-3233.8937" end_time="07:54:57" >
			</activity>
			<leg mode="drt">
			</leg>
			<activity type="dummy" link="443" x="4974.2256" y="-5490.882" >
			</activity>
		</plan>

	</person>

<!-- ====================================================================== -->

	<person id="drt_person_44">
		<plan selected="yes">
			<activity type="dummy" link="485" x="1873.2789" y="-1134.3448" end_time="07:07:10" >
			</activity>
			<leg mode="drt">
			</leg>
			<activity type="dummy" link="409" x="5133.7227" y="-1253.3148" >
			</activity>
		</plan>

	</person>

<!-- ====================================================================== -->

	<person id="drt_person_45">
		<plan selected="yes">
			<activity type="dummy" link="483" x="1621.1338" y="-1576.9995" end_time="07:29:14" >
			</activity>
			<leg mode="drt">
			</leg>
			<activity type="dummy" link="303" x="5243.3813" y="-893.1027" >
			</activity>
		</plan>

	</person>

<!-- ====================================================================== -->

	<person id="drt_person_46">
		<plan selected="yes">
			<activity type="dummy" link="147" x="3505.2961" y="-1733.5814" end_time="07:33:56" >
			</activity>
			<leg mode="drt">
			</leg>
			<activity type="dummy" link="117" x="2377.5819" y="-3143.3224" >
			</activity>
		</plan>

	</person>

<!-- ====================================================================== -->

	<person id="drt_person_47">
		<plan selected="yes">
			<activity type="dummy" link="331" x="3510.3775" y="-1128.2459" end_time="07:51:48" >
			</activity>
			<leg mode="drt">
			</leg>
			<activity type="dummy" link="111" x="2536.7609" y="-2894.4909" >
			</activity>
		</plan>

	</person>

<!-- ====================================================================== -->

	<person id="drt_person_48">
		<plan selected="yes">
			<activity type="dummy" link="511" x="2368.7265" y="-676.0186" end_time="07:55:42" >
			</activity>
			<leg mode="drt">
			</leg>
			<activity type="dummy" link="107" x="2761.3702" y="-3039.9877" >
			</activity>
		</plan>

	</person>

<!-- ====================================================================== -->

	<person id="drt_person_49">
		<plan selected="yes">
			<activity type="dummy" link="501" x="2141.5332" y="-1461.0828" end_time="07:22:17" >
			</activity>
			<leg mode="drt">
			</leg>
			<activity type="dummy" link="193" x="482.4765" y="-3552.378" >
			</activity>
		</plan>

	</person>

<!-- ====================================================================== -->

	<person id="drt_person_5">
		<plan selected="yes">
			<activity type="dummy" link="169" x="2236.6993" y="-2938.4023" end_time="07:50:19" >
			</activity>
			<leg mode="drt">
			</leg>
			<activity type="dummy" link="341" x="1546.9337" y="-2313.6153" >
			</activity>
		</plan>

	</person>

<!-- ====================================================================== -->

	<person id="drt_person_50">
		<plan selected="yes">
			<activity type="dummy" link="511" x="2368.7265" y="-676.0186" end_time="07:41:14" >
			</activity>
			<leg mode="drt">
			</leg>
			<activity type="dummy" link="477" x="1305.3809" y="-3857.1716" >
			</activity>
		</plan>

	</person>

<!-- ====================================================================== -->

	<person id="drt_person_51">
		<plan selected="yes">
			<activity type="dummy" link="147" x="3150.8321" y="-2587.9409" end_time="07:32:04" >
			</activity>
			<leg mode="drt">
			</leg>
			<activity type="dummy" link="353" x="4288.0543" y="-1080.2883" >
			</activity>
		</plan>

	</person>

<!-- ====================================================================== -->

	<person id="drt_person_52">
		<plan selected="yes">
			<activity type="dummy" link="505" x="2645.8234" y="-1671.2037" end_time="07:35:00" >
			</activity>
			<leg mode="drt">
			</leg>
			<activity type="dummy" link="301" x="4319.2163" y="-1899.6337" >
			</activity>
		</plan>

	</person>

<!-- ====================================================================== -->

	<person id="drt_person_53">
		<plan selected="yes">
			<activity type="dummy" link="289" x="2096.0127" y="-2136.2931" end_time="07:17:02" >
			</activity>
			<leg mode="drt">
			</leg>
			<activity type="dummy" link="317" x="4593.3207" y="-6607.3457" >
			</activity>
		</plan>

	</person>

<!-- ====================================================================== -->

	<person id="drt_person_54">
		<plan selected="yes">
			<activity type="dummy" link="409" x="5133.7227" y="-1253.3148" end_time="07:02:08" >
			</activity>
			<leg mode="drt">
			</leg>
			<activity type="dummy" link="139" x="2681.3028" y="-3558.6515" >
			</activity>
		</plan>

	</person>

<!-- ====================================================================== -->

	<person id="drt_person_55">
		<plan selected="yes">
			<activity type="dummy" link="393" x="4645.7786" y="-1961.0661" end_time="07:14:53" >
			</activity>
			<leg mode="drt">
			</leg>
			<activity type="dummy" link="101" x="3226.9121" y="-3345.9461" >
			</activity>
		</plan>

	</person>

<!-- ====================================================================== -->

	<person id="drt_person_56">
		<plan selected="yes">
			<activity type="dummy" link="379" x="4740.8093" y="-1505.636" end_time="07:57:59" >
			</activity>
			<leg mode="drt">
			</leg>
			<activity type="dummy" link="231" x="2052.0274" y="-2886.637" >
			</activity>
		</plan>

	</person>

<!-- ====================================================================== -->

	<person id="drt_person_57">
		<plan selected="yes">
			<activity type="dummy" link="373" x="4875.2867" y="-824.284" end_time="07:17:26" >
			</activity>
			<leg mode="drt">
			</leg>
			<activity type="dummy" link="10" x="1595.7554" y="-3949.9319" >
			</activity>
		</plan>

	</person>

<!-- ====================================================================== -->

	<person id="drt_person_58">
		<plan selected="yes">
			<activity type="dummy" link="259" x="4900.9804" y="-2016.2967" end_time="07:20:25" >
			</activity>
			<leg mode="drt">
			</leg>
			<activity type="dummy" link="1" x="1848.3062" y="-4230.8927" >
			</activity>
		</plan>

	</person>

<!-- ====================================================================== -->

	<person id="drt_person_59">
		<plan selected="yes">
			<activity type="dummy" link="359" x="4352.4913" y="-794.5239" end_time="07:25:00" >
			</activity>
			<leg mode="drt">
			</leg>
			<activity type="dummy" link="337" x="1861.8445" y="-2562.0658" >
			</activity>
		</plan>

	</person>

<!-- ====================================================================== -->

	<person id="drt_person_6">
		<plan selected="yes">
			<activity type="dummy" link="139" x="2681.3028" y="-3558.6515" end_time="07:04:33" >
			</activity>
			<leg mode="drt">
			</leg>
			<activity type="dummy" link="377" x="4801.7724" y="-1177.5112" >
			</activity>
		</plan>

	</person>

<!-- ====================================================================== -->

	<person id="drt_person_60">
		<plan selected="yes">
			<activity type="dummy" link="365" x="4163.9014" y="-1665.433" end_time="07:33:22" >
			</activity>
			<leg mode="drt">
			</leg>
			<activity type="dummy" link="179" x="1312.7703" y="-3738.178" >
			</activity>
		</plan>

	</person>

<!-- ====================================================================== -->

	<person id="drt_person_61">
		<plan selected="yes">
			<activity type="dummy" link="393" x="4645.7786" y="-1961.0661" end_time="07:56:10" >
			</activity>
			<leg mode="drt">
			</leg>
			<activity type="dummy" link="195" x="1101.8713" y="-2916.9678" >
			</activity>
		</plan>

	</person>

<!-- ====================================================================== -->

	<person id="drt_person_62">
		<plan selected="yes">
			<activity type="dummy" link="259" x="4900.9804" y="-2016.2967" end_time="07:16:10" >
			</activity>
			<leg mode="drt">
			</leg>
			<activity type="dummy" link="151" x="3893.7418" y="-2584.9121" >
			</activity>
		</plan>

	</person>

<!-- ====================================================================== -->

	<person id="drt_person_63">
		<plan selected="yes">
			<activity type="dummy" link="301" x="4319.2163" y="-1899.6337" end_time="07:53:36" >
			</activity>
			<leg mode="drt">
			</leg>
			<activity type="dummy" link="29" x="5244.5469" y="-3856.8461" >
			</activity>
		</plan>

	</person>

<!-- ====================================================================== -->

	<person id="drt_person_64">
		<plan selected="yes">
			<activity type="dummy" link="367" x="4357.3695" y="-1706.4735" end_time="07:10:54" >
			</activity>
			<leg mode="drt">
			</leg>
			<activity type="dummy" link="447" x="3068.3065" y="-5036.7407" >
			</activity>
		</plan>

	</person>

<!-- ====================================================================== -->

	<person id="drt_person_65">
		<plan selected="yes">
			<activity type="dummy" link="379" x="4740.8093" y="-1505.636" end_time="07:34:28" >
			</activity>
			<leg mode="drt">
			</leg>
			<activity type="dummy" link="315" x="5004.3302" y="-7044.19" >
			</activity>
		</plan>

	</person>

<!-- ====================================================================== -->

	<person id="drt_person_66">
		<plan selected="yes">
			<activity type="dummy" link="63" x="4303.2394" y="-3448.3823" end_time="07:09:31" >
			</activity>
			<leg mode="drt">
			</leg>
			<activity type="dummy" link="575" x="2312.7228" y="-3359.1399" >
			</activity>
		</plan>

	</person>

<!-- ====================================================================== -->

	<person id="drt_person_67">
		<plan selected="yes">
			<activity type="dummy" link="265" x="4701.2855" y="-2516.1463" end_time="07:09:52" >
			</activity>
			<leg mode="drt">
			</leg>
			<activity type="dummy" link="163" x="2524.19" y="-2439.1202" >
			</activity>
		</plan>

	</person>

<!-- ====================================================================== -->

	<person id="drt_person_68">
		<plan selected="yes">
			<activity type="dummy" link="261" x="4384.5801" y="-2946.7248" end_time="07:11:25" >
			</activity>
			<leg mode="drt">
			</leg>
			<activity type="dummy" link="163" x="2524.19" y="-2439.1202" >
			</activity>
		</plan>

	</person>

<!-- ====================================================================== -->

	<person id="drt_person_69">
		<plan selected="yes">
			<activity type="dummy" link="39" x="4992.5426" y="-3523.8228" end_time="07:18:47" >
			</activity>
			<leg mode="drt">
			</leg>
			<activity type="dummy" link="231" x="2052.0274" y="-2886.637" >
			</activity>
		</plan>

	</person>

<!-- ====================================================================== -->

	<person id="drt_person_7">
		<plan selected="yes">
			<activity type="dummy" link="131" x="2598.9688" y="-3452.5322" end_time="07:45:10" >
			</activity>
			<leg mode="drt">
			</leg>
			<activity type="dummy" link="373" x="4875.2867" y="-824.284" >
			</activity>
		</plan>

	</person>

<!-- ====================================================================== -->

	<person id="drt_person_70">
		<plan selected="yes">
			<activity type="dummy" link="527" x="5040.3809" y="-2768.4835" end_time="07:31:30" >
			</activity>
			<leg mode="drt">
			</leg>
			<activity type="dummy" link="227" x="2419.859" y="-3745.5265" >
			</activity>
		</plan>

	</person>

<!-- ====================================================================== -->

	<person id="drt_person_71">
		<plan selected="yes">
			<activity type="dummy" link="261" x="4384.5801" y="-2946.7248" end_time="07:40:31" >
			</activity>
			<leg mode="drt">
			</leg>
			<activity type="dummy" link="227" x="2419.859" y="-3745.5265" >
			</activity>
		</plan>

	</person>

<!-- ====================================================================== -->

	<person id="drt_person_72">
		<plan selected="yes">
			<activity type="dummy" link="151" x="3893.7418" y="-2584.9121" end_time="07:53:07" >
			</activity>
			<leg mode="drt">
			</leg>
			<activity type="dummy" link="573" x="2193.716" y="-3377.6409" >
			</activity>
		</plan>

	</person>

<!-- ====================================================================== -->

	<person id="drt_person_73">
		<plan selected="yes">
			<activity type="dummy" link="151" x="3893.7418" y="-2584.9121" end_time="07:53:49" >
			</activity>
			<leg mode="drt">
			</leg>
			<activity type="dummy" link="575" x="2312.7228" y="-3359.1399" >
			</activity>
		</plan>

	</person>

<!-- ====================================================================== -->

	<person id="drt_person_74">
		<plan selected="yes">
			<activity type="dummy" link="521" x="4613.1351" y="-3115.183" end_time="07:00:30" >
			</activity>
			<leg mode="drt">
			</leg>
			<activity type="dummy" link="189" x="1048.5264" y="-3816.5737" >
			</activity>
		</plan>

	</person>

<!-- ====================================================================== -->

	<person id="drt_person_75">
		<plan selected="yes">
			<activity type="dummy" link="151" x="3893.7418" y="-2584.9121" end_time="07:08:40" >
			</activity>
			<leg mode="drt">
			</leg>
			<activity type="dummy" link="195" x="1101.8713" y="-2916.9678" >
			</activity>
		</plan>

	</person>

<!-- ====================================================================== -->

	<person id="drt_person_76">
		<plan selected="yes">
			<activity type="dummy" link="63" x="4303.2394" y="-3448.3823" end_time="07:28:45" >
			</activity>
			<leg mode="drt">
			</leg>
			<activity type="dummy" link="1" x="1693.0797" y="-4371.0593" >
			</activity>
		</plan>

	</person>

<!-- ====================================================================== -->

	<person id="drt_person_77">
		<plan selected="yes">
			<activity type="dummy" link="521" x="4638.1194" y="-3007.4327" end_time="07:35:43" >
			</activity>
			<leg mode="drt">
			</leg>
			<activity type="dummy" link="191" x="619.2843" y="-3731.0713" >
			</activity>
		</plan>

	</person>

<!-- ====================================================================== -->

	<person id="drt_person_78">
		<plan selected="yes">
			<activity type="dummy" link="261" x="4384.5801" y="-2946.7248" end_time="07:54:51" >
			</activity>
			<leg mode="drt">
			</leg>
			<activity type="dummy" link="10" x="1595.7554" y="-3949.9319" >
			</activity>
		</plan>

	</person>

<!-- ====================================================================== -->

	<person id="drt_person_79">
		<plan selected="yes">
			<activity type="dummy" link="531" x="5099.9151" y="-2561.8646" end_time="07:01:55" >
			</activity>
			<leg mode="drt">
			</leg>
			<activity type="dummy" link="259" x="4900.9804" y="-2016.2967" >
			</activity>
		</plan>

	</person>

<!-- ====================================================================== -->
